! 2432 meshes cell size 0p25cm:
&MULT ID='m1', DX=0.14,DY=0.16,DZ=0.131,I_UPPER=7,J_UPPER=7,K_LOWER=4,K_UPPER=11/ # 512 meshes
&MESH IJK=56,64,52, XB=-1.549,-1.409,-0.64,-0.48,-.54,-0.409, MULT_ID='m1' /

&MULT ID='m2', DX=0.14,DY=0.16,DZ=0.131,I_LOWER=8,I_UPPER=19,J_UPPER=7,K_UPPER=19/ # 1920 meshes
&MESH IJK=56,64,52, XB=-1.549,-1.409,-0.64,-0.48,-.54,-0.409, MULT_ID='m2' /

