! 608 meshes cell size 0p5cm:
&MULT ID='m1', DX=0.28,DY=0.16,DZ=0.262,I_UPPER=3,J_UPPER=7,K_LOWER=2,K_UPPER=5/ # 128 meshes
&MESH IJK=56,32,52, XB=-1.549,-1.269,-0.64,-0.48,-.54,-0.278, MULT_ID='m1' /

&MULT ID='m2', DX=0.28,DY=0.16,DZ=0.262,I_LOWER=4,I_UPPER=9,J_UPPER=7,K_UPPER=9/ # 480 meshes
&MESH IJK=56,32,52, XB=-1.549,-1.269,-0.64,-0.48,-.54,-0.278, MULT_ID='m2' /

