! 304 meshes cell size 1cm:
&MULT ID='m1', DX=0.28,DY=0.32,DZ=0.262,I_UPPER=3,J_UPPER=3,K_LOWER=2,K_UPPER=5/ # 64 meshes
&MESH IJK=28,32,26, XB=-1.549,-1.269,-0.64,-0.32,-.54,-0.278, MULT_ID='m1' /

&MULT ID='m2', DX=0.28,DY=0.32,DZ=0.262,I_LOWER=4,I_UPPER=9,J_UPPER=3,K_UPPER=9/ # 240 meshes
&MESH IJK=28,32,26, XB=-1.549,-1.269,-0.64,-0.32,-.54,-0.278, MULT_ID='m2' /

