! Primitive stoich coeffs obtained from the .out file of the following case:
! &HEAD CHID='propane_comb', TITLE='Check Propane combustion 2 eqn stoichiometry' /
! &TIME T_END=1./
! &MESH XB=0,1,0,1,0,1, IJK=10,10,10 /
! &REAC FUEL='PROPANE', SOOT_YIELD=0.024,N_SIMPLE_CHEMISTRY_REACTIONS=2 /
! &TAIL/
! Propane soot yield obtained from SFPE Handbook, Third Edition, pp. 3-111.
! Propane AIT obtained from SFPE Handbook, Third Edition, pp. 2-176.
! Propane-N2 critical flame temperature from Cup Burner, FDS Validation Guide.
&REAC ID='REAC1', FUEL='PROPANE', PRIORITY=1,
      SPEC_ID_NU='PROPANE','OXYGEN','WATER VAPOR','CARBON MONOXIDE','SOOT'
      NU=-1.0,-3.0,4.0,2.0,1.0, AIT_EXCLUSION_ZONE=-1.46,-1.282,-0.089, 0.089, 0.24,0.258, AUTO_IGNITION_TEMPERATURE=300., CRITICAL_FLAME_TEMPERATURE=1447.0  /

&REAC ID='REAC2', FUEL='CARBON MONOXIDE', PRIORITY=2,
      SPEC_ID_NU='OXYGEN','CARBON DIOXIDE','CARBON MONOXIDE','SOOT'
      NU=-0.103604,0.157794,-0.108379,-0.049415, AIT_EXCLUSION_ZONE=-1.46,-1.282,-0.089, 0.089, 0.24,0.258, AUTO_IGNITION_TEMPERATURE=300., CRITICAL_FLAME_TEMPERATURE=1447.0 /
